NOVO24/1726522/_ATERRAMENTO.dss
! Aterramento do neutro (no 4) dos secundarios de BT
! Reactor de 0.5 ohm entre o no 4 e a terra (no 0).
New Reactor.NEUTRO_node_102276167 phases=1 bus1=node_102276167.4 bus2=node_102276167.0 R=0.5 X=0
New Reactor.NEUTRO_node_102277088 phases=1 bus1=node_102277088.4 bus2=node_102277088.0 R=0.5 X=0
New Reactor.NEUTRO_node_102277763 phases=1 bus1=node_102277763.4 bus2=node_102277763.0 R=0.5 X=0
New Reactor.NEUTRO_node_102277877 phases=1 bus1=node_102277877.4 bus2=node_102277877.0 R=0.5 X=0
New Reactor.NEUTRO_node_102277997 phases=1 bus1=node_102277997.4 bus2=node_102277997.0 R=0.5 X=0
New Reactor.NEUTRO_node_102305714 phases=1 bus1=node_102305714.4 bus2=node_102305714.0 R=0.5 X=0
New Reactor.NEUTRO_node_1037061412 phases=1 bus1=node_1037061412.4 bus2=node_1037061412.0 R=0.5 X=0
New Reactor.NEUTRO_node_1051463465 phases=1 bus1=node_1051463465.4 bus2=node_1051463465.0 R=0.5 X=0
New Reactor.NEUTRO_node_1149319260 phases=1 bus1=node_1149319260.4 bus2=node_1149319260.0 R=0.5 X=0
New Reactor.NEUTRO_node_1176342339 phases=1 bus1=node_1176342339.4 bus2=node_1176342339.0 R=0.5 X=0
New Reactor.NEUTRO_node_1206455183 phases=1 bus1=node_1206455183.4 bus2=node_1206455183.0 R=0.5 X=0
New Reactor.NEUTRO_node_1214185467 phases=1 bus1=node_1214185467.4 bus2=node_1214185467.0 R=0.5 X=0
New Reactor.NEUTRO_node_1226542657 phases=1 bus1=node_1226542657.4 bus2=node_1226542657.0 R=0.5 X=0
New Reactor.NEUTRO_node_1247643247 phases=1 bus1=node_1247643247.4 bus2=node_1247643247.0 R=0.5 X=0
New Reactor.NEUTRO_node_1248295966 phases=1 bus1=node_1248295966.4 bus2=node_1248295966.0 R=0.5 X=0
New Reactor.NEUTRO_node_1273707986 phases=1 bus1=node_1273707986.4 bus2=node_1273707986.0 R=0.5 X=0
New Reactor.NEUTRO_node_1279264280 phases=1 bus1=node_1279264280.4 bus2=node_1279264280.0 R=0.5 X=0
New Reactor.NEUTRO_node_1349840546 phases=1 bus1=node_1349840546.4 bus2=node_1349840546.0 R=0.5 X=0
New Reactor.NEUTRO_node_1414538378 phases=1 bus1=node_1414538378.4 bus2=node_1414538378.0 R=0.5 X=0
New Reactor.NEUTRO_node_1414538909 phases=1 bus1=node_1414538909.4 bus2=node_1414538909.0 R=0.5 X=0
New Reactor.NEUTRO_node_1414539054 phases=1 bus1=node_1414539054.4 bus2=node_1414539054.0 R=0.5 X=0
New Reactor.NEUTRO_node_1414539326 phases=1 bus1=node_1414539326.4 bus2=node_1414539326.0 R=0.5 X=0
New Reactor.NEUTRO_node_1414539460 phases=1 bus1=node_1414539460.4 bus2=node_1414539460.0 R=0.5 X=0
New Reactor.NEUTRO_node_1414539540 phases=1 bus1=node_1414539540.4 bus2=node_1414539540.0 R=0.5 X=0
New Reactor.NEUTRO_node_1414539663 phases=1 bus1=node_1414539663.4 bus2=node_1414539663.0 R=0.5 X=0
New Reactor.NEUTRO_node_1414539869 phases=1 bus1=node_1414539869.4 bus2=node_1414539869.0 R=0.5 X=0
New Reactor.NEUTRO_node_1524984603 phases=1 bus1=node_1524984603.4 bus2=node_1524984603.0 R=0.5 X=0
New Reactor.NEUTRO_node_1524984671 phases=1 bus1=node_1524984671.4 bus2=node_1524984671.0 R=0.5 X=0
New Reactor.NEUTRO_node_1524984835 phases=1 bus1=node_1524984835.4 bus2=node_1524984835.0 R=0.5 X=0
New Reactor.NEUTRO_node_1524985068 phases=1 bus1=node_1524985068.4 bus2=node_1524985068.0 R=0.5 X=0
New Reactor.NEUTRO_node_1524985126 phases=1 bus1=node_1524985126.4 bus2=node_1524985126.0 R=0.5 X=0
New Reactor.NEUTRO_node_1524985348 phases=1 bus1=node_1524985348.4 bus2=node_1524985348.0 R=0.5 X=0
New Reactor.NEUTRO_node_1524985428 phases=1 bus1=node_1524985428.4 bus2=node_1524985428.0 R=0.5 X=0
New Reactor.NEUTRO_node_1524985552 phases=1 bus1=node_1524985552.4 bus2=node_1524985552.0 R=0.5 X=0
New Reactor.NEUTRO_node_1547974804 phases=1 bus1=node_1547974804.4 bus2=node_1547974804.0 R=0.5 X=0
New Reactor.NEUTRO_node_1547975044 phases=1 bus1=node_1547975044.4 bus2=node_1547975044.0 R=0.5 X=0
New Reactor.NEUTRO_node_1547975288 phases=1 bus1=node_1547975288.4 bus2=node_1547975288.0 R=0.5 X=0
New Reactor.NEUTRO_node_1547975668 phases=1 bus1=node_1547975668.4 bus2=node_1547975668.0 R=0.5 X=0
New Reactor.NEUTRO_node_1547975819 phases=1 bus1=node_1547975819.4 bus2=node_1547975819.0 R=0.5 X=0
New Reactor.NEUTRO_node_1547975981 phases=1 bus1=node_1547975981.4 bus2=node_1547975981.0 R=0.5 X=0
New Reactor.NEUTRO_node_1547976040 phases=1 bus1=node_1547976040.4 bus2=node_1547976040.0 R=0.5 X=0
New Reactor.NEUTRO_node_1547976334 phases=1 bus1=node_1547976334.4 bus2=node_1547976334.0 R=0.5 X=0
New Reactor.NEUTRO_node_1547978021 phases=1 bus1=node_1547978021.4 bus2=node_1547978021.0 R=0.5 X=0
New Reactor.NEUTRO_node_1582845744 phases=1 bus1=node_1582845744.4 bus2=node_1582845744.0 R=0.5 X=0
New Reactor.NEUTRO_node_1584503204 phases=1 bus1=node_1584503204.4 bus2=node_1584503204.0 R=0.5 X=0
New Reactor.NEUTRO_node_1590295813 phases=1 bus1=node_1590295813.4 bus2=node_1590295813.0 R=0.5 X=0
New Reactor.NEUTRO_node_162078534 phases=1 bus1=node_162078534.4 bus2=node_162078534.0 R=0.5 X=0
New Reactor.NEUTRO_node_1630839939 phases=1 bus1=node_1630839939.4 bus2=node_1630839939.0 R=0.5 X=0
New Reactor.NEUTRO_node_1637139206 phases=1 bus1=node_1637139206.4 bus2=node_1637139206.0 R=0.5 X=0
New Reactor.NEUTRO_node_1647638911 phases=1 bus1=node_1647638911.4 bus2=node_1647638911.0 R=0.5 X=0
New Reactor.NEUTRO_node_1653151737 phases=1 bus1=node_1653151737.4 bus2=node_1653151737.0 R=0.5 X=0
New Reactor.NEUTRO_node_1653709749 phases=1 bus1=node_1653709749.4 bus2=node_1653709749.0 R=0.5 X=0
New Reactor.NEUTRO_node_1665239252 phases=1 bus1=node_1665239252.4 bus2=node_1665239252.0 R=0.5 X=0
New Reactor.NEUTRO_node_1700128077 phases=1 bus1=node_1700128077.4 bus2=node_1700128077.0 R=0.5 X=0
New Reactor.NEUTRO_node_1708247955 phases=1 bus1=node_1708247955.4 bus2=node_1708247955.0 R=0.5 X=0
New Reactor.NEUTRO_node_1772610717 phases=1 bus1=node_1772610717.4 bus2=node_1772610717.0 R=0.5 X=0
New Reactor.NEUTRO_node_1886676310 phases=1 bus1=node_1886676310.4 bus2=node_1886676310.0 R=0.5 X=0
New Reactor.NEUTRO_node_1897338694 phases=1 bus1=node_1897338694.4 bus2=node_1897338694.0 R=0.5 X=0
New Reactor.NEUTRO_node_1905140535 phases=1 bus1=node_1905140535.4 bus2=node_1905140535.0 R=0.5 X=0
New Reactor.NEUTRO_node_2063143225 phases=1 bus1=node_2063143225.4 bus2=node_2063143225.0 R=0.5 X=0
New Reactor.NEUTRO_node_2063143560 phases=1 bus1=node_2063143560.4 bus2=node_2063143560.0 R=0.5 X=0
New Reactor.NEUTRO_node_2063143833 phases=1 bus1=node_2063143833.4 bus2=node_2063143833.0 R=0.5 X=0
New Reactor.NEUTRO_node_2063144088 phases=1 bus1=node_2063144088.4 bus2=node_2063144088.0 R=0.5 X=0
New Reactor.NEUTRO_node_2063144155 phases=1 bus1=node_2063144155.4 bus2=node_2063144155.0 R=0.5 X=0
New Reactor.NEUTRO_node_2063144432 phases=1 bus1=node_2063144432.4 bus2=node_2063144432.0 R=0.5 X=0
New Reactor.NEUTRO_node_2063144638 phases=1 bus1=node_2063144638.4 bus2=node_2063144638.0 R=0.5 X=0
New Reactor.NEUTRO_node_2063144863 phases=1 bus1=node_2063144863.4 bus2=node_2063144863.0 R=0.5 X=0
New Reactor.NEUTRO_node_2063145064 phases=1 bus1=node_2063145064.4 bus2=node_2063145064.0 R=0.5 X=0
New Reactor.NEUTRO_node_2063145466 phases=1 bus1=node_2063145466.4 bus2=node_2063145466.0 R=0.5 X=0
New Reactor.NEUTRO_node_2063145612 phases=1 bus1=node_2063145612.4 bus2=node_2063145612.0 R=0.5 X=0
New Reactor.NEUTRO_node_2063146074 phases=1 bus1=node_2063146074.4 bus2=node_2063146074.0 R=0.5 X=0
New Reactor.NEUTRO_node_2063146151 phases=1 bus1=node_2063146151.4 bus2=node_2063146151.0 R=0.5 X=0
New Reactor.NEUTRO_node_2112464190 phases=1 bus1=node_2112464190.4 bus2=node_2112464190.0 R=0.5 X=0
New Reactor.NEUTRO_node_2112464454 phases=1 bus1=node_2112464454.4 bus2=node_2112464454.0 R=0.5 X=0
New Reactor.NEUTRO_node_2112464641 phases=1 bus1=node_2112464641.4 bus2=node_2112464641.0 R=0.5 X=0
New Reactor.NEUTRO_node_2112464814 phases=1 bus1=node_2112464814.4 bus2=node_2112464814.0 R=0.5 X=0
New Reactor.NEUTRO_node_2112464862 phases=1 bus1=node_2112464862.4 bus2=node_2112464862.0 R=0.5 X=0
New Reactor.NEUTRO_node_2112465058 phases=1 bus1=node_2112465058.4 bus2=node_2112465058.0 R=0.5 X=0
New Reactor.NEUTRO_node_2112465195 phases=1 bus1=node_2112465195.4 bus2=node_2112465195.0 R=0.5 X=0
New Reactor.NEUTRO_node_2112465284 phases=1 bus1=node_2112465284.4 bus2=node_2112465284.0 R=0.5 X=0
New Reactor.NEUTRO_node_2112465513 phases=1 bus1=node_2112465513.4 bus2=node_2112465513.0 R=0.5 X=0
New Reactor.NEUTRO_node_2112465823 phases=1 bus1=node_2112465823.4 bus2=node_2112465823.0 R=0.5 X=0
New Reactor.NEUTRO_node_2112465981 phases=1 bus1=node_2112465981.4 bus2=node_2112465981.0 R=0.5 X=0
New Reactor.NEUTRO_node_2112466248 phases=1 bus1=node_2112466248.4 bus2=node_2112466248.0 R=0.5 X=0
New Reactor.NEUTRO_node_2128823639 phases=1 bus1=node_2128823639.4 bus2=node_2128823639.0 R=0.5 X=0
New Reactor.NEUTRO_node_2189725413 phases=1 bus1=node_2189725413.4 bus2=node_2189725413.0 R=0.5 X=0
New Reactor.NEUTRO_node_2202585860 phases=1 bus1=node_2202585860.4 bus2=node_2202585860.0 R=0.5 X=0
New Reactor.NEUTRO_node_2202585920 phases=1 bus1=node_2202585920.4 bus2=node_2202585920.0 R=0.5 X=0
New Reactor.NEUTRO_node_2216708825 phases=1 bus1=node_2216708825.4 bus2=node_2216708825.0 R=0.5 X=0
New Reactor.NEUTRO_node_2336696499 phases=1 bus1=node_2336696499.4 bus2=node_2336696499.0 R=0.5 X=0
New Reactor.NEUTRO_node_2403734266 phases=1 bus1=node_2403734266.4 bus2=node_2403734266.0 R=0.5 X=0
New Reactor.NEUTRO_node_2477404712 phases=1 bus1=node_2477404712.4 bus2=node_2477404712.0 R=0.5 X=0
New Reactor.NEUTRO_node_2477404727 phases=1 bus1=node_2477404727.4 bus2=node_2477404727.0 R=0.5 X=0
New Reactor.NEUTRO_node_2477404742 phases=1 bus1=node_2477404742.4 bus2=node_2477404742.0 R=0.5 X=0
New Reactor.NEUTRO_node_2477404797 phases=1 bus1=node_2477404797.4 bus2=node_2477404797.0 R=0.5 X=0
New Reactor.NEUTRO_node_2477404812 phases=1 bus1=node_2477404812.4 bus2=node_2477404812.0 R=0.5 X=0
New Reactor.NEUTRO_node_2477405272 phases=1 bus1=node_2477405272.4 bus2=node_2477405272.0 R=0.5 X=0
New Reactor.NEUTRO_node_2477405348 phases=1 bus1=node_2477405348.4 bus2=node_2477405348.0 R=0.5 X=0
New Reactor.NEUTRO_node_2501942219 phases=1 bus1=node_2501942219.4 bus2=node_2501942219.0 R=0.5 X=0
New Reactor.NEUTRO_node_2531832585 phases=1 bus1=node_2531832585.4 bus2=node_2531832585.0 R=0.5 X=0
New Reactor.NEUTRO_node_2538780368 phases=1 bus1=node_2538780368.4 bus2=node_2538780368.0 R=0.5 X=0
New Reactor.NEUTRO_node_2541314156 phases=1 bus1=node_2541314156.4 bus2=node_2541314156.0 R=0.5 X=0
New Reactor.NEUTRO_node_2541314263 phases=1 bus1=node_2541314263.4 bus2=node_2541314263.0 R=0.5 X=0
New Reactor.NEUTRO_node_2556475934 phases=1 bus1=node_2556475934.4 bus2=node_2556475934.0 R=0.5 X=0
New Reactor.NEUTRO_node_2734312008 phases=1 bus1=node_2734312008.4 bus2=node_2734312008.0 R=0.5 X=0
New Reactor.NEUTRO_node_2750259956 phases=1 bus1=node_2750259956.4 bus2=node_2750259956.0 R=0.5 X=0
New Reactor.NEUTRO_node_2764857846 phases=1 bus1=node_2764857846.4 bus2=node_2764857846.0 R=0.5 X=0
New Reactor.NEUTRO_node_2764858632 phases=1 bus1=node_2764858632.4 bus2=node_2764858632.0 R=0.5 X=0
New Reactor.NEUTRO_node_2764858839 phases=1 bus1=node_2764858839.4 bus2=node_2764858839.0 R=0.5 X=0
New Reactor.NEUTRO_node_2765284737 phases=1 bus1=node_2765284737.4 bus2=node_2765284737.0 R=0.5 X=0
New Reactor.NEUTRO_node_2783558885 phases=1 bus1=node_2783558885.4 bus2=node_2783558885.0 R=0.5 X=0
New Reactor.NEUTRO_node_2793502133 phases=1 bus1=node_2793502133.4 bus2=node_2793502133.0 R=0.5 X=0
New Reactor.NEUTRO_node_2820561922 phases=1 bus1=node_2820561922.4 bus2=node_2820561922.0 R=0.5 X=0
New Reactor.NEUTRO_node_282781627 phases=1 bus1=node_282781627.4 bus2=node_282781627.0 R=0.5 X=0
New Reactor.NEUTRO_node_2865424902 phases=1 bus1=node_2865424902.4 bus2=node_2865424902.0 R=0.5 X=0
New Reactor.NEUTRO_node_2889537750 phases=1 bus1=node_2889537750.4 bus2=node_2889537750.0 R=0.5 X=0
New Reactor.NEUTRO_node_2917035671 phases=1 bus1=node_2917035671.4 bus2=node_2917035671.0 R=0.5 X=0
New Reactor.NEUTRO_node_2941188277 phases=1 bus1=node_2941188277.4 bus2=node_2941188277.0 R=0.5 X=0
New Reactor.NEUTRO_node_2941188480 phases=1 bus1=node_2941188480.4 bus2=node_2941188480.0 R=0.5 X=0
New Reactor.NEUTRO_node_2992014981 phases=1 bus1=node_2992014981.4 bus2=node_2992014981.0 R=0.5 X=0
New Reactor.NEUTRO_node_417592234 phases=1 bus1=node_417592234.4 bus2=node_417592234.0 R=0.5 X=0
New Reactor.NEUTRO_node_417592237 phases=1 bus1=node_417592237.4 bus2=node_417592237.0 R=0.5 X=0
New Reactor.NEUTRO_node_417592240 phases=1 bus1=node_417592240.4 bus2=node_417592240.0 R=0.5 X=0
New Reactor.NEUTRO_node_417592249 phases=1 bus1=node_417592249.4 bus2=node_417592249.0 R=0.5 X=0
New Reactor.NEUTRO_node_417592255 phases=1 bus1=node_417592255.4 bus2=node_417592255.0 R=0.5 X=0
New Reactor.NEUTRO_node_417592258 phases=1 bus1=node_417592258.4 bus2=node_417592258.0 R=0.5 X=0
New Reactor.NEUTRO_node_417592261 phases=1 bus1=node_417592261.4 bus2=node_417592261.0 R=0.5 X=0
New Reactor.NEUTRO_node_417592267 phases=1 bus1=node_417592267.4 bus2=node_417592267.0 R=0.5 X=0
New Reactor.NEUTRO_node_417592282 phases=1 bus1=node_417592282.4 bus2=node_417592282.0 R=0.5 X=0
New Reactor.NEUTRO_node_417592288 phases=1 bus1=node_417592288.4 bus2=node_417592288.0 R=0.5 X=0
New Reactor.NEUTRO_node_417592291 phases=1 bus1=node_417592291.4 bus2=node_417592291.0 R=0.5 X=0
New Reactor.NEUTRO_node_417592294 phases=1 bus1=node_417592294.4 bus2=node_417592294.0 R=0.5 X=0
New Reactor.NEUTRO_node_417592297 phases=1 bus1=node_417592297.4 bus2=node_417592297.0 R=0.5 X=0
New Reactor.NEUTRO_node_417592303 phases=1 bus1=node_417592303.4 bus2=node_417592303.0 R=0.5 X=0
New Reactor.NEUTRO_node_417592306 phases=1 bus1=node_417592306.4 bus2=node_417592306.0 R=0.5 X=0
New Reactor.NEUTRO_node_417592312 phases=1 bus1=node_417592312.4 bus2=node_417592312.0 R=0.5 X=0
New Reactor.NEUTRO_node_417592327 phases=1 bus1=node_417592327.4 bus2=node_417592327.0 R=0.5 X=0
New Reactor.NEUTRO_node_417592336 phases=1 bus1=node_417592336.4 bus2=node_417592336.0 R=0.5 X=0
New Reactor.NEUTRO_node_417592348 phases=1 bus1=node_417592348.4 bus2=node_417592348.0 R=0.5 X=0
New Reactor.NEUTRO_node_417592351 phases=1 bus1=node_417592351.4 bus2=node_417592351.0 R=0.5 X=0
New Reactor.NEUTRO_node_417592354 phases=1 bus1=node_417592354.4 bus2=node_417592354.0 R=0.5 X=0
New Reactor.NEUTRO_node_417592360 phases=1 bus1=node_417592360.4 bus2=node_417592360.0 R=0.5 X=0
New Reactor.NEUTRO_node_417592375 phases=1 bus1=node_417592375.4 bus2=node_417592375.0 R=0.5 X=0
New Reactor.NEUTRO_node_417592384 phases=1 bus1=node_417592384.4 bus2=node_417592384.0 R=0.5 X=0
New Reactor.NEUTRO_node_417592399 phases=1 bus1=node_417592399.4 bus2=node_417592399.0 R=0.5 X=0
New Reactor.NEUTRO_node_417592402 phases=1 bus1=node_417592402.4 bus2=node_417592402.0 R=0.5 X=0
New Reactor.NEUTRO_node_417592414 phases=1 bus1=node_417592414.4 bus2=node_417592414.0 R=0.5 X=0
New Reactor.NEUTRO_node_417592420 phases=1 bus1=node_417592420.4 bus2=node_417592420.0 R=0.5 X=0
New Reactor.NEUTRO_node_417592423 phases=1 bus1=node_417592423.4 bus2=node_417592423.0 R=0.5 X=0
New Reactor.NEUTRO_node_417592426 phases=1 bus1=node_417592426.4 bus2=node_417592426.0 R=0.5 X=0
New Reactor.NEUTRO_node_417592432 phases=1 bus1=node_417592432.4 bus2=node_417592432.0 R=0.5 X=0
New Reactor.NEUTRO_node_417592447 phases=1 bus1=node_417592447.4 bus2=node_417592447.0 R=0.5 X=0
New Reactor.NEUTRO_node_417592450 phases=1 bus1=node_417592450.4 bus2=node_417592450.0 R=0.5 X=0
New Reactor.NEUTRO_node_417592453 phases=1 bus1=node_417592453.4 bus2=node_417592453.0 R=0.5 X=0
New Reactor.NEUTRO_node_417592456 phases=1 bus1=node_417592456.4 bus2=node_417592456.0 R=0.5 X=0
New Reactor.NEUTRO_node_417592459 phases=1 bus1=node_417592459.4 bus2=node_417592459.0 R=0.5 X=0
New Reactor.NEUTRO_node_417592465 phases=1 bus1=node_417592465.4 bus2=node_417592465.0 R=0.5 X=0
New Reactor.NEUTRO_node_417592468 phases=1 bus1=node_417592468.4 bus2=node_417592468.0 R=0.5 X=0
New Reactor.NEUTRO_node_417592474 phases=1 bus1=node_417592474.4 bus2=node_417592474.0 R=0.5 X=0
New Reactor.NEUTRO_node_417592483 phases=1 bus1=node_417592483.4 bus2=node_417592483.0 R=0.5 X=0
New Reactor.NEUTRO_node_417592501 phases=1 bus1=node_417592501.4 bus2=node_417592501.0 R=0.5 X=0
New Reactor.NEUTRO_node_417592510 phases=1 bus1=node_417592510.4 bus2=node_417592510.0 R=0.5 X=0
New Reactor.NEUTRO_node_417592519 phases=1 bus1=node_417592519.4 bus2=node_417592519.0 R=0.5 X=0
New Reactor.NEUTRO_node_417592525 phases=1 bus1=node_417592525.4 bus2=node_417592525.0 R=0.5 X=0
New Reactor.NEUTRO_node_417592534 phases=1 bus1=node_417592534.4 bus2=node_417592534.0 R=0.5 X=0
New Reactor.NEUTRO_node_417592546 phases=1 bus1=node_417592546.4 bus2=node_417592546.0 R=0.5 X=0
New Reactor.NEUTRO_node_417592549 phases=1 bus1=node_417592549.4 bus2=node_417592549.0 R=0.5 X=0
New Reactor.NEUTRO_node_417592552 phases=1 bus1=node_417592552.4 bus2=node_417592552.0 R=0.5 X=0
New Reactor.NEUTRO_node_417592567 phases=1 bus1=node_417592567.4 bus2=node_417592567.0 R=0.5 X=0
New Reactor.NEUTRO_node_417592570 phases=1 bus1=node_417592570.4 bus2=node_417592570.0 R=0.5 X=0
New Reactor.NEUTRO_node_417592573 phases=1 bus1=node_417592573.4 bus2=node_417592573.0 R=0.5 X=0
New Reactor.NEUTRO_node_417592576 phases=1 bus1=node_417592576.4 bus2=node_417592576.0 R=0.5 X=0
New Reactor.NEUTRO_node_417592582 phases=1 bus1=node_417592582.4 bus2=node_417592582.0 R=0.5 X=0
New Reactor.NEUTRO_node_417592594 phases=1 bus1=node_417592594.4 bus2=node_417592594.0 R=0.5 X=0
New Reactor.NEUTRO_node_417592597 phases=1 bus1=node_417592597.4 bus2=node_417592597.0 R=0.5 X=0
New Reactor.NEUTRO_node_417592606 phases=1 bus1=node_417592606.4 bus2=node_417592606.0 R=0.5 X=0
New Reactor.NEUTRO_node_417592612 phases=1 bus1=node_417592612.4 bus2=node_417592612.0 R=0.5 X=0
New Reactor.NEUTRO_node_417592618 phases=1 bus1=node_417592618.4 bus2=node_417592618.0 R=0.5 X=0
New Reactor.NEUTRO_node_417592651 phases=1 bus1=node_417592651.4 bus2=node_417592651.0 R=0.5 X=0
New Reactor.NEUTRO_node_417592660 phases=1 bus1=node_417592660.4 bus2=node_417592660.0 R=0.5 X=0
New Reactor.NEUTRO_node_417592672 phases=1 bus1=node_417592672.4 bus2=node_417592672.0 R=0.5 X=0
New Reactor.NEUTRO_node_417592675 phases=1 bus1=node_417592675.4 bus2=node_417592675.0 R=0.5 X=0
New Reactor.NEUTRO_node_417592678 phases=1 bus1=node_417592678.4 bus2=node_417592678.0 R=0.5 X=0
New Reactor.NEUTRO_node_417592702 phases=1 bus1=node_417592702.4 bus2=node_417592702.0 R=0.5 X=0
New Reactor.NEUTRO_node_417592711 phases=1 bus1=node_417592711.4 bus2=node_417592711.0 R=0.5 X=0
New Reactor.NEUTRO_node_417592720 phases=1 bus1=node_417592720.4 bus2=node_417592720.0 R=0.5 X=0
New Reactor.NEUTRO_node_417592726 phases=1 bus1=node_417592726.4 bus2=node_417592726.0 R=0.5 X=0
New Reactor.NEUTRO_node_417592729 phases=1 bus1=node_417592729.4 bus2=node_417592729.0 R=0.5 X=0
New Reactor.NEUTRO_node_417592750 phases=1 bus1=node_417592750.4 bus2=node_417592750.0 R=0.5 X=0
New Reactor.NEUTRO_node_417592756 phases=1 bus1=node_417592756.4 bus2=node_417592756.0 R=0.5 X=0
New Reactor.NEUTRO_node_417592768 phases=1 bus1=node_417592768.4 bus2=node_417592768.0 R=0.5 X=0
New Reactor.NEUTRO_node_417592777 phases=1 bus1=node_417592777.4 bus2=node_417592777.0 R=0.5 X=0
New Reactor.NEUTRO_node_417592789 phases=1 bus1=node_417592789.4 bus2=node_417592789.0 R=0.5 X=0
New Reactor.NEUTRO_node_417592795 phases=1 bus1=node_417592795.4 bus2=node_417592795.0 R=0.5 X=0
New Reactor.NEUTRO_node_417592801 phases=1 bus1=node_417592801.4 bus2=node_417592801.0 R=0.5 X=0
New Reactor.NEUTRO_node_417592807 phases=1 bus1=node_417592807.4 bus2=node_417592807.0 R=0.5 X=0
New Reactor.NEUTRO_node_417592816 phases=1 bus1=node_417592816.4 bus2=node_417592816.0 R=0.5 X=0
New Reactor.NEUTRO_node_417592822 phases=1 bus1=node_417592822.4 bus2=node_417592822.0 R=0.5 X=0
New Reactor.NEUTRO_node_417592828 phases=1 bus1=node_417592828.4 bus2=node_417592828.0 R=0.5 X=0
New Reactor.NEUTRO_node_417592831 phases=1 bus1=node_417592831.4 bus2=node_417592831.0 R=0.5 X=0
...
